 
data_NBMPO-x4-cov99-Resp36_Pm3
 
_audit_creation_method            'SHELXL-2017/1'
_shelx_SHELXL_version_number      '2017/1'
_chemical_name_systematic         ?
_chemical_name_common             'Iwateite'
_chemical_melting_point           ?
_chemical_formula_moiety          ?
_chemical_formula_sum
 'Ba Mn Na2 O8 P2' 
_chemical_formula_weight          428.20

loop_
 _atom_type_symbol
 _atom_type_description
 _atom_type_scat_dispersion_real
 _atom_type_scat_dispersion_imag
 _atom_type_scat_source
 'O'  'O'   0.0106   0.0060
 'International Tables Vol C Tables 4.2.6.8 and 6.1.1.4'
 'Na'  'Na'   0.0362   0.0249
 'International Tables Vol C Tables 4.2.6.8 and 6.1.1.4'
 'P'  'P'   0.1023   0.0942
 'International Tables Vol C Tables 4.2.6.8 and 6.1.1.4'
 'Mn'  'Mn'   0.3368   0.7283
 'International Tables Vol C Tables 4.2.6.8 and 6.1.1.4'
 'Ba'  'Ba'  -0.3244   2.2819
 'International Tables Vol C Tables 4.2.6.8 and 6.1.1.4'
 
_space_group_crystal_system       trigonal
_space_group_IT_number            147
_space_group_name_H-M_alt         'P -3'
_space_group_name_Hall            '-P 3'
 
_shelx_space_group_comment
;
The symmetry employed for this shelxl refinement is uniquely defined
by the following loop, which should always be used as a source of
symmetry information in preference to the above space-group names.
They are only intended as comments.
;
 
loop_
 _space_group_symop_operation_xyz
 'x, y, z'
 '-y, x-y, z'
 '-x+y, -x, z'
 '-x, -y, -z'
 'y, -x+y, -z'
 'x-y, x, -z'
 
_cell_length_a                  5.372937(39) 
_cell_length_b                  5.372937(39) 
_cell_length_c                  7.09442(97) 
_cell_angle_alpha               90.0 
_cell_angle_beta                90.0 
_cell_angle_gamma               120.0 
_cell_volume                    177.3664(52) 
_cell_formula_units_Z             1
_cell_measurement_temperature     293(2)
_cell_measurement_reflns_used     175982
_cell_measurement_theta_min       2.8600
_cell_measurement_theta_max       76.3930
 
    
loop_
 _atom_site_label
 _atom_site_type_symbol
 _atom_site_fract_x
 _atom_site_fract_y
 _atom_site_fract_z
 _atom_site_U_iso_or_equiv
 _atom_site_adp_type
 _atom_site_occupancy
 _atom_site_site_symmetry_order  
 _atom_site_calc_flag
 _atom_site_refinement_flags_posn
 _atom_site_refinement_flags_adp
 _atom_site_refinement_flags_occupancy
 _atom_site_disorder_assembly
 _atom_site_disorder_group
Na1 Na 0.333333 0.666667 0.18600(14) 0.01755(10) Uani 1 3 d S T P . .
P1 P 0.666667 0.333333 0.26286(4) 0.00645(3) Uani 1 3 d S T P . .
O1 O 0.666667 0.333333 0.47708(12) 0.01441(11) Uani 1 3 d S T P . .
O2 O 0.36193(12) 0.23574(15) 0.18706(10) 0.01347(7) Uani 1 1 d . . . . .
Ba02 Ba 0.000000 0.000000 0.500000 0.01135(2) Uani 1 6 d S T P . .
Mn1 Mn 0.000000 0.000000 0.000000 0.00726(2) Uani 1 6 d S T P . .
 
loop_
 _atom_site_aniso_label
 _atom_site_aniso_U_11
 _atom_site_aniso_U_22
 _atom_site_aniso_U_33
 _atom_site_aniso_U_23
 _atom_site_aniso_U_13
 _atom_site_aniso_U_12
Na1 0.01547(13) 0.01547(13) 0.0217(3) 0.000 0.000 0.00773(7)
P1 0.00649(4) 0.00649(4) 0.00636(6) 0.000 0.000 0.00324(2)
O1 0.01831(18) 0.01831(18) 0.00663(17) 0.000 0.000 0.00915(9)
O2 0.00845(12) 0.01639(18) 0.01453(18) -0.00322(15) -0.00373(12) 0.00543(12)
Ba02 0.01385(2) 0.01385(2) 0.00636(2) 0.000 0.000 0.00693(1)
Mn1 0.00758(3) 0.00758(3) 0.00663(4) 0.000 0.000 0.00379(1)
 